FoamFile { format ascii; class uniformDimensionedVectorField; object g; }
#include "../../common/g"
