FoamFile { format ascii; class dictionary; object physicalProperties.water; }
#include "../../common/physicalProperties.water"
