FoamFile { format ascii; class dictionary; object physicalProperties.oil; }
#include "../../common/physicalProperties.oil"
