FoamFile { format ascii; class dictionary; object phaseProperties; }
#include "../../common/phaseProperties"
